Version 4
SHEET 1 880 680
WIRE 208 -16 96 -16
WIRE 96 64 -16 64
WIRE 208 80 208 -16
WIRE 96 96 96 64
WIRE 48 144 -16 144
WIRE 96 224 96 192
WIRE 96 224 -16 224
WIRE 208 224 208 160
WIRE 208 224 96 224
WIRE 96 256 96 224
FLAG 96 256 0
SYMBOL res -32 48 R0
SYMATTR InstName R1
SYMATTR Value 470
SYMBOL res -32 128 R0
SYMATTR InstName R2
SYMATTR Value 470
SYMBOL res 80 -32 R0
SYMATTR InstName R3
SYMATTR Value 270
SYMBOL voltage 208 64 R0
SYMATTR InstName V1
SYMATTR Value 15
SYMBOL MyTL431 96 144 R0
SYMATTR InstName U2
TEXT -32 280 Left 2 !.tran 0 1 0.1 0.1
