Version 4
SHEET 1 1332 744
WIRE 96 -32 32 -32
WIRE 32 -16 32 -32
WIRE 544 -16 480 -16
WIRE 640 -16 608 -16
WIRE 96 64 96 32
WIRE 96 64 -64 64
WIRE 480 80 480 -16
WIRE 528 80 480 80
WIRE 640 80 640 -16
WIRE 640 80 608 80
WIRE 816 112 800 112
WIRE 1088 128 1072 128
WIRE 240 144 96 144
WIRE 352 144 240 144
WIRE 480 144 480 80
WIRE 480 144 432 144
WIRE 480 160 480 144
WIRE 496 160 480 160
WIRE 640 176 640 80
WIRE 640 176 560 176
WIRE 688 176 640 176
WIRE 496 192 480 192
WIRE 800 208 800 112
WIRE 880 208 880 112
WIRE -64 224 -64 64
WIRE 480 224 480 192
WIRE 480 224 432 224
WIRE 1072 224 1072 128
WIRE 1152 224 1152 128
WIRE 208 240 240 224
WIRE 208 240 352 224
WIRE 96 256 96 224
WIRE 96 256 48 256
WIRE 480 256 480 224
WIRE 592 256 560 256
WIRE 48 272 48 256
WIRE 96 272 96 256
WIRE 800 288 800 208
WIRE 800 288 448 288
WIRE 816 288 800 288
WIRE 880 304 880 208
WIRE 944 304 880 304
WIRE 1072 304 1072 224
WIRE 1072 304 1024 304
WIRE 1088 304 1072 304
WIRE 448 320 448 288
WIRE 448 320 208 320
WIRE 560 320 496 320
WIRE 656 320 624 320
WIRE 784 320 736 320
WIRE 816 320 784 320
WIRE 1152 320 1152 224
WIRE 1248 320 1152 320
WIRE 1056 336 1008 336
WIRE 1088 336 1056 336
WIRE 736 352 736 320
WIRE 784 368 784 320
WIRE 96 384 96 352
WIRE 192 384 96 384
WIRE 1008 384 1008 336
WIRE 1056 384 1056 336
WIRE 96 400 96 384
WIRE 240 400 208 400
WIRE 368 400 240 400
WIRE 496 416 496 320
WIRE 544 416 496 416
WIRE 656 416 656 320
WIRE 656 416 624 416
WIRE -64 480 -64 304
WIRE 96 480 -64 480
WIRE 368 480 368 400
WIRE 496 480 496 416
WIRE 496 480 448 480
WIRE 496 496 496 480
WIRE 512 496 496 496
WIRE 656 512 656 416
WIRE 656 512 576 512
WIRE 688 512 656 512
WIRE 192 528 192 384
WIRE 240 528 240 480
WIRE 240 528 192 528
WIRE 512 528 496 528
WIRE 96 544 96 480
WIRE 240 560 240 528
WIRE 368 560 240 560
WIRE 496 560 496 528
WIRE 496 560 448 560
WIRE 496 592 496 560
WIRE 96 624 96 608
WIRE 496 704 496 672
FLAG 96 624 0
FLAG 32 -16 0
FLAG 592 256 0
FLAG 496 704 0
FLAG -64 64 +V
FLAG 544 480 +V
FLAG 528 144 +V
FLAG -64 480 -V
FLAG 544 544 -V
FLAG 528 208 -V
FLAG 688 176 Out+
FLAG 688 512 Out-
FLAG 48 272 0
FLAG 736 352 0
FLAG 1008 384 0
FLAG 1248 320 A-B
FLAG 1120 288 V+
FLAG 848 272 V+
FLAG 848 336 V-
FLAG 784 432 V-
FLAG 1056 448 V-
FLAG 1120 352 V-
SYMBOL res 80 48 R0
SYMATTR InstName R1
SYMATTR Value 270
SYMBOL res 80 128 R0
SYMATTR InstName R2
SYMATTR Value 270
SYMBOL res 80 256 R0
SYMATTR InstName R3
SYMATTR Value 270
SYMBOL res 80 384 R0
SYMATTR InstName R4
SYMATTR Value 270
SYMBOL voltage -64 208 R0
WINDOW 123 0 0 Left 0
WINDOW 39 0 0 Left 0
SYMATTR InstName V1
SYMATTR Value 15
SYMBOL cap 80 544 R0
SYMATTR InstName C1
SYMATTR Value 0.1µ
SYMBOL cap 80 -32 R0
SYMATTR InstName C2
SYMATTR Value 0.1µ
SYMBOL res 224 128 R0
SYMATTR InstName R5
SYMATTR Value 50
SYMBOL current 208 240 R0
WINDOW 0 45 19 Left 2
WINDOW 3 42 41 Left 2
WINDOW 123 0 0 Left 0
WINDOW 39 0 0 Left 0
SYMATTR InstName I1
SYMATTR Value 0.00325
SYMBOL current 208 320 R0
WINDOW 0 38 51 Left 2
WINDOW 123 0 0 Left 0
WINDOW 39 0 0 Left 0
SYMATTR InstName I2
SYMATTR Value 0
SYMBOL res 224 384 R0
SYMATTR InstName R6
SYMATTR Value 50
SYMBOL res 448 128 R90
WINDOW 0 0 56 VBottom 2
WINDOW 3 32 56 VTop 2
SYMATTR InstName R7
SYMATTR Value 1k
SYMBOL res 448 208 R90
WINDOW 0 0 56 VBottom 2
WINDOW 3 32 56 VTop 2
SYMATTR InstName R8
SYMATTR Value 1k
SYMBOL OpAmps\\OP177A 528 112 R0
SYMATTR InstName U1
SYMBOL res 624 64 R90
WINDOW 0 0 56 VBottom 2
WINDOW 3 32 56 VTop 2
SYMATTR InstName R9
SYMATTR Value 10k
SYMBOL cap 608 -32 R90
WINDOW 0 0 32 VBottom 2
WINDOW 3 32 32 VTop 2
SYMATTR InstName C3
SYMATTR Value 150p
SYMBOL res 576 240 R90
WINDOW 0 0 56 VBottom 2
WINDOW 3 32 56 VTop 2
SYMATTR InstName R10
SYMATTR Value 10k
SYMBOL OpAmps\\OP177A 544 448 R0
SYMATTR InstName U2
SYMBOL res 640 400 R90
WINDOW 0 0 56 VBottom 2
WINDOW 3 32 56 VTop 2
SYMATTR InstName R11
SYMATTR Value 10k
SYMBOL cap 624 304 R90
WINDOW 0 0 32 VBottom 2
WINDOW 3 32 32 VTop 2
SYMATTR InstName C4
SYMATTR Value 150p
SYMBOL res 512 688 R180
WINDOW 0 36 76 Left 2
WINDOW 3 36 40 Left 2
SYMATTR InstName R12
SYMATTR Value 10k
SYMBOL res 464 464 R90
WINDOW 0 0 56 VBottom 2
WINDOW 3 32 56 VTop 2
SYMATTR InstName R13
SYMATTR Value 1k
SYMBOL res 464 544 R90
WINDOW 0 0 56 VBottom 2
WINDOW 3 32 56 VTop 2
SYMATTR InstName R14
SYMATTR Value 1k
SYMBOL res 896 192 R90
WINDOW 0 0 56 VBottom 2
WINDOW 3 32 56 VTop 2
SYMATTR InstName R16
SYMATTR Value 10k
SYMBOL cap 880 96 R90
WINDOW 0 0 32 VBottom 2
WINDOW 3 32 32 VTop 2
SYMATTR InstName C5
SYMATTR Value 150p
SYMBOL OpAmps\\OP177A 848 240 R0
SYMATTR InstName U3
SYMBOL OpAmps\\OP177A 1120 256 R0
SYMATTR InstName U4
SYMBOL cap 768 368 R0
SYMATTR InstName C6
SYMATTR Value 1n
SYMBOL cap 1040 384 R0
SYMATTR InstName C7
SYMATTR Value 1n
SYMBOL res 1168 208 R90
WINDOW 0 0 56 VBottom 2
WINDOW 3 32 56 VTop 2
SYMATTR InstName R15
SYMATTR Value 10k
SYMBOL cap 1152 112 R90
WINDOW 0 0 32 VBottom 2
WINDOW 3 32 32 VTop 2
SYMATTR InstName C8
SYMATTR Value 150p
SYMBOL res 1040 288 R90
WINDOW 0 0 56 VBottom 2
WINDOW 3 32 56 VTop 2
SYMATTR InstName R17
SYMATTR Value 1k
TEXT -24 680 Left 2 !.dc I1 0m 10m 0.1m
