Version 4
SHEET 1 1004 728
WIRE -208 -304 -272 -304
WIRE -272 -288 -272 -304
WIRE 256 -224 192 -224
WIRE 352 -224 320 -224
WIRE -208 -208 -208 -240
WIRE -208 -208 -640 -208
WIRE 192 -128 192 -224
WIRE 240 -128 192 -128
WIRE 352 -128 352 -224
WIRE 352 -128 320 -128
WIRE -352 -64 -496 -64
WIRE -208 -64 -208 -128
WIRE -208 -64 -352 -64
WIRE -96 -64 -208 -64
WIRE 64 -64 -96 -64
WIRE 192 -64 192 -128
WIRE 192 -64 144 -64
WIRE 192 -48 192 -64
WIRE 208 -48 192 -48
WIRE 512 -48 496 -48
WIRE 352 -32 352 -128
WIRE 352 -32 272 -32
WIRE 400 -32 352 -32
WIRE 784 -32 768 -32
WIRE -496 -16 -496 -64
WIRE 208 -16 192 -16
WIRE -352 16 -352 -64
WIRE -96 32 -96 16
WIRE 64 32 -96 32
WIRE 192 32 192 -16
WIRE 192 32 144 32
WIRE 496 48 496 -48
WIRE 576 48 576 -48
WIRE -640 64 -640 -208
WIRE -400 64 -496 64
WIRE -368 64 -400 64
WIRE 192 64 192 32
WIRE 304 64 272 64
WIRE 768 64 768 -32
WIRE 848 64 848 -32
WIRE -96 128 -96 112
WIRE 496 128 496 48
WIRE 496 128 -96 128
WIRE 512 128 496 128
WIRE -96 144 -96 128
WIRE 576 144 576 48
WIRE 640 144 576 144
WIRE 768 144 768 64
WIRE 768 144 720 144
WIRE 784 144 768 144
WIRE 256 160 192 160
WIRE 352 160 320 160
WIRE 480 160 432 160
WIRE 512 160 480 160
WIRE 848 160 848 64
WIRE 944 160 848 160
WIRE -496 176 -496 144
WIRE -496 176 -560 176
WIRE -352 176 -352 112
WIRE -352 176 -496 176
WIRE 752 176 704 176
WIRE 784 176 752 176
WIRE -560 192 -560 176
WIRE -496 192 -496 176
WIRE 432 192 432 160
WIRE 480 208 480 160
WIRE -352 224 -352 176
WIRE 64 224 -96 224
WIRE 704 224 704 176
WIRE 752 224 752 176
WIRE 192 256 192 160
WIRE 240 256 192 256
WIRE 352 256 352 160
WIRE 352 256 320 256
WIRE -400 272 -496 272
WIRE -368 272 -400 272
WIRE 64 320 64 224
WIRE 192 320 192 256
WIRE 192 320 144 320
WIRE 192 336 192 320
WIRE 208 336 192 336
WIRE 352 352 352 256
WIRE 352 352 272 352
WIRE 384 352 352 352
WIRE 208 368 192 368
WIRE -496 400 -496 352
WIRE -352 400 -352 320
WIRE -352 400 -496 400
WIRE -208 400 -352 400
WIRE -96 400 -96 304
WIRE -96 400 -208 400
WIRE 64 400 -96 400
WIRE 192 400 192 368
WIRE 192 400 144 400
WIRE -208 432 -208 400
WIRE 192 432 192 400
WIRE -640 512 -640 144
WIRE -208 512 -640 512
WIRE 192 544 192 512
WIRE -208 576 -208 512
WIRE -208 672 -208 640
FLAG -208 672 0
FLAG -272 -288 0
FLAG 304 64 0
FLAG 192 544 0
FLAG -640 -208 +V
FLAG 240 320 +V
FLAG 240 -64 +V
FLAG -640 512 -V
FLAG 240 384 -V
FLAG 240 0 -V
FLAG 400 -32 Out+
FLAG 384 352 Out-
FLAG 432 192 0
FLAG 704 224 0
FLAG 944 160 A-B
FLAG 816 128 V+
FLAG 544 112 V+
FLAG 544 176 V-
FLAG 480 272 V-
FLAG 752 288 V-
FLAG 816 192 V-
FLAG -560 192 0
SYMBOL res -224 -224 R0
SYMATTR InstName R1
SYMATTR Value 270
SYMBOL res -224 416 R0
SYMATTR InstName R4
SYMATTR Value 270
SYMBOL voltage -640 48 R0
WINDOW 123 0 0 Left 0
WINDOW 39 0 0 Left 0
SYMATTR InstName V1
SYMATTR Value 15
SYMBOL cap -224 576 R0
SYMATTR InstName C1
SYMATTR Value 0.1µ
SYMBOL cap -224 -304 R0
SYMATTR InstName C2
SYMATTR Value 0.1µ
SYMBOL res -112 -80 R0
SYMATTR InstName R5
SYMATTR Value 100
SYMBOL current -96 32 R0
WINDOW 0 45 19 Left 2
WINDOW 3 42 41 Left 2
WINDOW 123 0 0 Left 0
WINDOW 39 0 0 Left 0
SYMATTR InstName I1
SYMATTR Value 0.00325
SYMBOL current -96 144 R0
WINDOW 0 38 51 Left 2
WINDOW 123 0 0 Left 0
WINDOW 39 0 0 Left 0
SYMATTR InstName I2
SYMATTR Value 3.25m
SYMBOL res -112 208 R0
SYMATTR InstName R6
SYMATTR Value 100
SYMBOL res 160 -80 R90
WINDOW 0 0 56 VBottom 2
WINDOW 3 32 56 VTop 2
SYMATTR InstName R7
SYMATTR Value 1k
SYMBOL res 160 16 R90
WINDOW 0 0 56 VBottom 2
WINDOW 3 32 56 VTop 2
SYMATTR InstName R8
SYMATTR Value 1k
SYMBOL OpAmps\\OP177A 240 -96 R0
SYMATTR InstName U1
SYMBOL res 336 -144 R90
WINDOW 0 0 56 VBottom 2
WINDOW 3 32 56 VTop 2
SYMATTR InstName R9
SYMATTR Value 10k
SYMBOL cap 320 -240 R90
WINDOW 0 0 32 VBottom 2
WINDOW 3 32 32 VTop 2
SYMATTR InstName C3
SYMATTR Value 150p
SYMBOL res 288 48 R90
WINDOW 0 0 56 VBottom 2
WINDOW 3 32 56 VTop 2
SYMATTR InstName R10
SYMATTR Value 10k
SYMBOL OpAmps\\OP177A 240 288 R0
SYMATTR InstName U2
SYMBOL res 336 240 R90
WINDOW 0 0 56 VBottom 2
WINDOW 3 32 56 VTop 2
SYMATTR InstName R11
SYMATTR Value 10k
SYMBOL cap 320 144 R90
WINDOW 0 0 32 VBottom 2
WINDOW 3 32 32 VTop 2
SYMATTR InstName C4
SYMATTR Value 150p
SYMBOL res 208 528 R180
WINDOW 0 36 76 Left 2
WINDOW 3 36 40 Left 2
SYMATTR InstName R12
SYMATTR Value 10k
SYMBOL res 160 304 R90
WINDOW 0 0 56 VBottom 2
WINDOW 3 32 56 VTop 2
SYMATTR InstName R13
SYMATTR Value 1k
SYMBOL res 160 384 R90
WINDOW 0 0 56 VBottom 2
WINDOW 3 32 56 VTop 2
SYMATTR InstName R14
SYMATTR Value 1k
SYMBOL res 592 32 R90
WINDOW 0 0 56 VBottom 2
WINDOW 3 32 56 VTop 2
SYMATTR InstName R15
SYMATTR Value 10k
SYMBOL cap 576 -64 R90
WINDOW 0 0 32 VBottom 2
WINDOW 3 32 32 VTop 2
SYMATTR InstName C5
SYMATTR Value 150p
SYMBOL OpAmps\\OP177A 544 80 R0
SYMATTR InstName U3
SYMBOL OpAmps\\OP177A 816 96 R0
SYMATTR InstName U4
SYMBOL cap 464 208 R0
SYMATTR InstName C6
SYMATTR Value 1n
SYMBOL cap 736 224 R0
SYMATTR InstName C7
SYMATTR Value 1n
SYMBOL res 864 48 R90
WINDOW 0 0 56 VBottom 2
WINDOW 3 32 56 VTop 2
SYMATTR InstName R16
SYMATTR Value 10k
SYMBOL cap 848 -48 R90
WINDOW 0 0 32 VBottom 2
WINDOW 3 32 32 VTop 2
SYMATTR InstName C8
SYMATTR Value 150p
SYMBOL res 736 128 R90
WINDOW 0 0 56 VBottom 2
WINDOW 3 32 56 VTop 2
SYMATTR InstName R17
SYMATTR Value 1k
SYMBOL res -512 -32 R0
SYMATTR InstName R2
SYMATTR Value 470
SYMBOL res -512 48 R0
SYMATTR InstName R3
SYMATTR Value 470
SYMBOL res -512 176 R0
SYMATTR InstName R18
SYMATTR Value 470
SYMBOL res -512 256 R0
SYMATTR InstName R19
SYMATTR Value 470
SYMBOL MyTL431 -352 64 R0
SYMATTR InstName U5
SYMBOL MyTL431 -352 272 R0
SYMATTR InstName U7
TEXT -480 712 Left 2 !.dc I1 0m 7m 0.2m
