Version 4
SHEET 1 1420 680
WIRE 496 -240 432 -240
WIRE 592 -240 560 -240
WIRE 432 -144 432 -240
WIRE 480 -144 432 -144
WIRE 592 -144 592 -240
WIRE 592 -144 560 -144
WIRE -288 -80 -384 -80
WIRE -272 -80 -288 -80
WIRE -160 -80 -192 -80
WIRE -16 -80 -160 -80
WIRE 48 -80 -16 -80
WIRE 208 -80 48 -80
WIRE 304 -80 208 -80
WIRE 432 -80 432 -144
WIRE 432 -80 384 -80
WIRE 208 -64 208 -80
WIRE 432 -64 432 -80
WIRE 448 -64 432 -64
WIRE 592 -48 592 -144
WIRE 592 -48 512 -48
WIRE 640 -48 592 -48
WIRE 784 -48 768 -48
WIRE -160 -32 -160 -80
WIRE 448 -32 432 -32
WIRE 1056 -32 1040 -32
WIRE -16 0 -16 -80
WIRE 48 0 48 -80
WIRE 304 16 208 16
WIRE 432 16 432 -32
WIRE 432 16 384 16
WIRE -288 32 -288 -80
WIRE -64 48 -160 48
WIRE -32 48 -64 48
WIRE 208 48 208 16
WIRE 432 48 432 16
WIRE 544 48 512 48
WIRE 768 48 768 -48
WIRE 848 48 848 -48
WIRE 48 64 48 48
WIRE 1040 64 1040 -32
WIRE 1120 64 1120 -32
WIRE -384 128 -384 -80
WIRE 816 144 816 128
WIRE -288 160 -288 96
WIRE -160 160 -160 128
WIRE -160 160 -288 160
WIRE -16 160 -16 96
WIRE -16 160 -160 160
WIRE 48 160 48 64
WIRE 48 160 -16 160
WIRE 80 160 48 160
WIRE 208 160 208 128
WIRE 368 160 208 160
WIRE 768 160 768 48
WIRE 768 160 448 160
WIRE 784 160 768 160
WIRE -160 176 -160 160
WIRE 80 176 80 160
WIRE 848 176 848 48
WIRE 912 176 848 176
WIRE 1040 176 1040 64
WIRE 1040 176 992 176
WIRE 1056 176 1040 176
WIRE 736 192 688 192
WIRE 784 192 736 192
WIRE 1120 192 1120 64
WIRE 1216 192 1120 192
WIRE -16 208 -16 160
WIRE 1024 208 976 208
WIRE 1056 208 1024 208
WIRE 528 224 464 224
WIRE 624 224 592 224
WIRE 688 224 688 192
WIRE 208 240 208 160
WIRE 736 240 736 192
WIRE 816 240 816 208
WIRE -64 256 -160 256
WIRE -32 256 -64 256
WIRE 976 256 976 208
WIRE 1024 256 1024 208
WIRE 48 272 48 160
WIRE -288 288 -288 160
WIRE 464 320 464 224
WIRE 512 320 464 320
WIRE 624 320 624 224
WIRE 624 320 592 320
WIRE 208 384 208 320
WIRE 336 384 208 384
WIRE 464 384 464 320
WIRE 464 384 416 384
WIRE 464 400 464 384
WIRE 480 400 464 400
WIRE 624 416 624 320
WIRE 624 416 544 416
WIRE 672 416 624 416
WIRE 480 432 464 432
WIRE -384 464 -384 208
WIRE -288 464 -288 352
WIRE -288 464 -384 464
WIRE -272 464 -288 464
WIRE -160 464 -160 336
WIRE -160 464 -192 464
WIRE -16 464 -16 304
WIRE -16 464 -160 464
WIRE 48 464 48 336
WIRE 48 464 -16 464
WIRE 208 464 48 464
WIRE 336 464 208 464
WIRE 336 480 336 464
WIRE 464 480 464 432
WIRE 464 480 416 480
WIRE 464 512 464 480
WIRE 576 512 544 512
FLAG -384 -80 +V
FLAG -384 464 -V
FLAG -16 464 V2-
FLAG 544 48 0
FLAG 480 -80 +V
FLAG 480 -16 -V
FLAG 640 -48 Out+
IOPIN 640 -48 Out
FLAG 576 512 0
FLAG 512 384 +V
FLAG 512 448 -V
FLAG 672 416 Out-
IOPIN 672 416 Out
FLAG 80 176 0
FLAG 688 224 0
FLAG 976 256 0
FLAG 1216 192 A-B
FLAG 1088 160 +V
FLAG 816 128 +V
FLAG 816 240 -V
FLAG 736 304 -V
FLAG 1024 320 -V
FLAG 1088 224 -V
SYMBOL res -288 -64 R270
WINDOW 0 32 56 VTop 2
WINDOW 3 0 56 VBottom 2
SYMATTR InstName R1
SYMATTR Value 270
SYMBOL res -288 480 R270
WINDOW 0 32 56 VTop 2
WINDOW 3 0 56 VBottom 2
SYMATTR InstName R2
SYMATTR Value 270
SYMBOL voltage -384 112 R0
WINDOW 123 0 0 Left 0
WINDOW 39 0 0 Left 0
SYMATTR InstName V1
SYMATTR Value 15
SYMBOL cap -272 352 R180
WINDOW 0 24 56 Left 2
WINDOW 3 24 8 Left 2
SYMATTR InstName C1
SYMATTR Value 0.1µ
SYMBOL cap -272 96 R180
WINDOW 0 24 56 Left 2
WINDOW 3 24 8 Left 2
SYMATTR InstName C2
SYMATTR Value 0.1µ
SYMBOL res -176 -48 R0
SYMATTR InstName R3
SYMATTR Value 470
SYMBOL res -176 32 R0
SYMATTR InstName R4
SYMATTR Value 470
SYMBOL res -176 160 R0
SYMATTR InstName R5
SYMATTR Value 470
SYMBOL res -176 240 R0
SYMATTR InstName R6
SYMATTR Value 470
SYMBOL MyTL431 -16 48 R0
WINDOW 0 99 -16 Left 2
SYMATTR InstName U1
SYMBOL MyTL431 -16 256 R0
SYMATTR InstName U2
SYMBOL current 208 48 R0
WINDOW 39 0 0 Left 0
WINDOW 3 24 136 Left 2
WINDOW 123 24 108 Left 2
SYMATTR InstName I1
SYMATTR Value 3.25m
SYMATTR Value2 AC 3.25m
SYMBOL current 208 240 R0
WINDOW 123 0 0 Left 0
WINDOW 39 0 0 Left 0
SYMATTR InstName I2
SYMATTR Value 0
SYMBOL res 192 -80 R0
SYMATTR InstName R7
SYMATTR Value 10
SYMBOL res 192 368 R0
SYMATTR InstName R8
SYMATTR Value 10
SYMBOL res 400 -96 R90
WINDOW 0 0 56 VBottom 2
WINDOW 3 32 56 VTop 2
SYMATTR InstName R9
SYMATTR Value 560
SYMBOL res 400 0 R90
WINDOW 0 0 56 VBottom 2
WINDOW 3 32 56 VTop 2
SYMATTR InstName R13
SYMATTR Value 560
SYMBOL OpAmps\\OP177A 480 -112 R0
SYMATTR InstName U5
SYMBOL res 576 -160 R90
WINDOW 0 0 56 VBottom 2
WINDOW 3 32 56 VTop 2
SYMATTR InstName R14
SYMATTR Value 10k
SYMBOL cap 560 -256 R90
WINDOW 0 0 32 VBottom 2
WINDOW 3 32 32 VTop 2
SYMATTR InstName C7
SYMATTR Value 150p
SYMBOL res 528 32 R90
WINDOW 0 0 56 VBottom 2
WINDOW 3 32 56 VTop 2
SYMATTR InstName R15
SYMATTR Value 10k
SYMBOL res 432 368 R90
WINDOW 0 0 56 VBottom 2
WINDOW 3 32 56 VTop 2
SYMATTR InstName R16
SYMATTR Value 560
SYMBOL res 432 464 R90
WINDOW 0 0 56 VBottom 2
WINDOW 3 32 56 VTop 2
SYMATTR InstName R17
SYMATTR Value 560
SYMBOL OpAmps\\OP177A 512 352 R0
SYMATTR InstName U6
SYMBOL res 608 304 R90
WINDOW 0 0 56 VBottom 2
WINDOW 3 32 56 VTop 2
SYMATTR InstName R18
SYMATTR Value 10k
SYMBOL cap 592 208 R90
WINDOW 0 0 32 VBottom 2
WINDOW 3 32 32 VTop 2
SYMATTR InstName C8
SYMATTR Value 150p
SYMBOL res 560 496 R90
WINDOW 0 0 56 VBottom 2
WINDOW 3 32 56 VTop 2
SYMATTR InstName R19
SYMATTR Value 10k
SYMBOL res 864 32 R90
WINDOW 0 0 56 VBottom 2
WINDOW 3 32 56 VTop 2
SYMATTR InstName R10
SYMATTR Value 1k
SYMBOL cap 848 -64 R90
WINDOW 0 0 32 VBottom 2
WINDOW 3 32 32 VTop 2
SYMATTR InstName C3
SYMATTR Value 150n
SYMBOL OpAmps\\OP177A 816 112 R0
SYMATTR InstName U3
SYMBOL OpAmps\\OP177A 1088 128 R0
SYMATTR InstName U4
SYMBOL cap 720 240 R0
SYMATTR InstName C4
SYMATTR Value 1n
SYMBOL cap 1008 256 R0
SYMATTR InstName C5
SYMATTR Value 1n
SYMBOL res 1136 48 R90
WINDOW 0 0 56 VBottom 2
WINDOW 3 32 56 VTop 2
SYMATTR InstName R11
SYMATTR Value 1k
SYMBOL cap 1120 -48 R90
WINDOW 0 0 32 VBottom 2
WINDOW 3 32 32 VTop 2
SYMATTR InstName C6
SYMATTR Value 150n
SYMBOL res 1008 160 R90
WINDOW 0 0 56 VBottom 2
WINDOW 3 32 56 VTop 2
SYMATTR InstName R12
SYMATTR Value 1k
SYMBOL res 464 144 R90
WINDOW 0 0 56 VBottom 2
WINDOW 3 32 56 VTop 2
SYMATTR InstName R20
SYMATTR Value .001
SYMBOL cap 32 0 R0
SYMATTR InstName 1u
SYMATTR Value 1µ
SYMBOL cap 32 272 R0
SYMATTR InstName C10
SYMATTR Value 1µ
TEXT -8 536 Left 2 !.dc I1 0m 30m 1m
