Version 4
SHEET 1 1420 680
WIRE 480 -240 432 -240
WIRE 592 -240 544 -240
WIRE 432 -144 432 -240
WIRE 480 -144 432 -144
WIRE 592 -144 592 -240
WIRE 592 -144 560 -144
WIRE -288 -80 -384 -80
WIRE -272 -80 -288 -80
WIRE -160 -80 -192 -80
WIRE -16 -80 -160 -80
WIRE 96 -80 -16 -80
WIRE 208 -80 96 -80
WIRE 304 -80 208 -80
WIRE 432 -80 432 -144
WIRE 432 -80 384 -80
WIRE 208 -64 208 -80
WIRE 432 -48 432 -80
WIRE 448 -48 432 -48
WIRE 784 -48 768 -48
WIRE -160 -32 -160 -80
WIRE 592 -32 592 -144
WIRE 592 -32 512 -32
WIRE 608 -32 592 -32
WIRE 1056 -32 1040 -32
WIRE 448 -16 432 -16
WIRE -16 0 -16 -80
WIRE 96 0 96 -80
WIRE 304 16 208 16
WIRE 432 16 432 -16
WIRE 432 16 384 16
WIRE -288 32 -288 -80
WIRE -64 48 -160 48
WIRE -32 48 -64 48
WIRE 208 48 208 16
WIRE 272 48 208 48
WIRE 768 48 768 -48
WIRE 848 48 848 -48
WIRE 96 64 96 48
WIRE 1040 64 1040 -32
WIRE 1120 64 1120 -32
WIRE 432 80 432 16
WIRE 544 80 512 80
WIRE -384 128 -384 -80
WIRE 272 128 208 128
WIRE -288 160 -288 96
WIRE -160 160 -160 128
WIRE -160 160 -288 160
WIRE -16 160 -16 96
WIRE -16 160 -160 160
WIRE 96 160 96 64
WIRE 96 160 -16 160
WIRE 128 160 96 160
WIRE 208 160 208 128
WIRE 368 160 208 160
WIRE 768 160 768 48
WIRE 768 160 448 160
WIRE 784 160 768 160
WIRE -160 176 -160 160
WIRE 128 176 128 160
WIRE 848 176 848 48
WIRE 912 176 848 176
WIRE 1040 176 1040 64
WIRE 1040 176 992 176
WIRE 1056 176 1040 176
WIRE 752 192 704 192
WIRE 784 192 752 192
WIRE 1120 192 1120 64
WIRE 1216 192 1120 192
WIRE -16 208 -16 160
WIRE 208 208 208 160
WIRE 272 208 208 208
WIRE 1024 208 976 208
WIRE 1056 208 1024 208
WIRE 208 224 208 208
WIRE 480 224 432 224
WIRE 592 224 544 224
WIRE 704 224 704 192
WIRE 272 240 272 208
WIRE 304 240 272 240
WIRE 752 240 752 192
WIRE 1024 240 1024 208
WIRE -64 256 -160 256
WIRE -32 256 -64 256
WIRE 976 256 976 208
WIRE 96 272 96 160
WIRE -288 288 -288 160
WIRE 208 320 208 304
WIRE 304 320 208 320
WIRE 432 320 432 224
WIRE 480 320 432 320
WIRE 592 320 592 224
WIRE 592 320 560 320
WIRE 208 368 208 320
WIRE 304 368 208 368
WIRE 432 368 432 320
WIRE 432 368 384 368
WIRE 208 384 208 368
WIRE 432 400 432 368
WIRE 448 400 432 400
WIRE 592 416 592 320
WIRE 592 416 512 416
WIRE 608 416 592 416
WIRE 448 432 432 432
WIRE -384 464 -384 208
WIRE -288 464 -288 352
WIRE -288 464 -384 464
WIRE -272 464 -288 464
WIRE -160 464 -160 336
WIRE -160 464 -192 464
WIRE -16 464 -16 304
WIRE -16 464 -160 464
WIRE 96 464 96 336
WIRE 96 464 -16 464
WIRE 208 464 96 464
WIRE 304 464 208 464
WIRE 432 464 432 432
WIRE 432 464 384 464
WIRE 432 528 432 464
WIRE 544 528 512 528
FLAG -384 -80 +V
FLAG -384 464 -V
FLAG -16 464 V2-
FLAG 544 80 0
FLAG 480 -64 +V
FLAG 480 0 -V
FLAG 608 -32 Out+
IOPIN 608 -32 Out
FLAG 544 528 0
FLAG 480 384 +V
FLAG 480 448 -V
FLAG 608 416 Out-
IOPIN 608 416 Out
FLAG 128 176 0
FLAG 704 224 0
FLAG 976 256 0
FLAG 1216 192 A-B
FLAG 1088 160 +V
FLAG 816 144 +V
FLAG 816 208 -V
FLAG 752 304 -V
FLAG 1024 304 -V
FLAG 1088 224 -V
SYMBOL res -288 -64 R270
WINDOW 0 32 56 VTop 2
WINDOW 3 0 56 VBottom 2
SYMATTR InstName R1
SYMATTR Value 270
SYMBOL res -288 480 R270
WINDOW 0 32 56 VTop 2
WINDOW 3 0 56 VBottom 2
SYMATTR InstName R2
SYMATTR Value 270
SYMBOL voltage -384 112 R0
WINDOW 123 0 0 Left 0
WINDOW 39 0 0 Left 0
SYMATTR InstName V1
SYMATTR Value 15
SYMBOL cap -272 352 R180
WINDOW 0 24 56 Left 2
WINDOW 3 24 8 Left 2
SYMATTR InstName C2
SYMATTR Value 0.1µ
SYMBOL cap -272 96 R180
WINDOW 0 24 56 Left 2
WINDOW 3 24 8 Left 2
SYMATTR InstName C1
SYMATTR Value 0.1µ
SYMBOL res -176 -48 R0
SYMATTR InstName R3
SYMATTR Value 470
SYMBOL res -176 32 R0
SYMATTR InstName R4
SYMATTR Value 470
SYMBOL res -176 160 R0
SYMATTR InstName R5
SYMATTR Value 470
SYMBOL res -176 240 R0
SYMATTR InstName R6
SYMATTR Value 470
SYMBOL MyTL431 -16 48 R0
WINDOW 0 19 -38 Left 2
WINDOW 38 11 42 Center 2
SYMATTR InstName U1
SYMBOL MyTL431 -16 256 R0
WINDOW 0 19 -35 Left 2
WINDOW 38 13 38 Center 2
SYMATTR InstName U2
SYMBOL current 208 304 R180
WINDOW 123 0 0 Left 0
WINDOW 39 0 0 Left 0
SYMATTR InstName I2
SYMATTR Value SINE(2m 0.5m 10k)
SYMBOL res 192 -80 R0
SYMATTR InstName R7
SYMATTR Value 10
SYMBOL res 192 368 R0
SYMATTR InstName R8
SYMATTR Value 10
SYMBOL res 400 -96 R90
WINDOW 0 0 56 VBottom 2
WINDOW 3 32 56 VTop 2
SYMATTR InstName R9
SYMATTR Value 50
SYMBOL res 400 0 R90
WINDOW 0 0 56 VBottom 2
WINDOW 3 32 56 VTop 2
SYMATTR InstName R10
SYMATTR Value 50
SYMBOL OpAmps\\OP177A 480 -96 R0
SYMATTR InstName U5
SYMBOL res 576 -160 R90
WINDOW 0 0 56 VBottom 2
WINDOW 3 32 56 VTop 2
SYMATTR InstName R11
SYMATTR Value 10k
SYMBOL cap 544 -256 R90
WINDOW 0 0 32 VBottom 2
WINDOW 3 32 32 VTop 2
SYMATTR InstName C5
SYMATTR Value 15p
SYMBOL res 528 64 R90
WINDOW 0 0 56 VBottom 2
WINDOW 3 32 56 VTop 2
SYMATTR InstName R12
SYMATTR Value 10k
SYMBOL res 400 352 R90
WINDOW 0 0 56 VBottom 2
WINDOW 3 32 56 VTop 2
SYMATTR InstName R13
SYMATTR Value 50
SYMBOL res 400 448 R90
WINDOW 0 0 56 VBottom 2
WINDOW 3 32 56 VTop 2
SYMATTR InstName R14
SYMATTR Value 50
SYMBOL OpAmps\\OP177A 480 352 R0
SYMATTR InstName U6
SYMBOL res 576 304 R90
WINDOW 0 0 56 VBottom 2
WINDOW 3 32 56 VTop 2
SYMATTR InstName R15
SYMATTR Value 10k
SYMBOL cap 544 208 R90
WINDOW 0 0 32 VBottom 2
WINDOW 3 32 32 VTop 2
SYMATTR InstName C6
SYMATTR Value 15p
SYMBOL res 528 512 R90
WINDOW 0 0 56 VBottom 2
WINDOW 3 32 56 VTop 2
SYMATTR InstName R16
SYMATTR Value 10k
SYMBOL res 864 32 R90
WINDOW 0 0 56 VBottom 2
WINDOW 3 32 56 VTop 2
SYMATTR InstName R17
SYMATTR Value 10k
SYMBOL cap 848 -64 R90
WINDOW 0 0 32 VBottom 2
WINDOW 3 32 32 VTop 2
SYMATTR InstName C7
SYMATTR Value 150n
SYMBOL OpAmps\\OP177A 816 112 R0
SYMATTR InstName U3
SYMBOL OpAmps\\OP177A 1088 128 R0
SYMATTR InstName U4
SYMBOL cap 736 240 R0
SYMATTR InstName C8
SYMATTR Value 1n
SYMBOL cap 1008 240 R0
SYMATTR InstName C10
SYMATTR Value 1n
SYMBOL res 1136 48 R90
WINDOW 0 0 56 VBottom 2
WINDOW 3 32 56 VTop 2
SYMATTR InstName R19
SYMATTR Value 10k
SYMBOL cap 1120 -48 R90
WINDOW 0 0 32 VBottom 2
WINDOW 3 32 32 VTop 2
SYMATTR InstName C9
SYMATTR Value 150n
SYMBOL res 1008 160 R90
WINDOW 0 0 56 VBottom 2
WINDOW 3 32 56 VTop 2
SYMATTR InstName R18
SYMATTR Value 1k
SYMBOL res 464 144 R90
WINDOW 0 0 56 VBottom 2
WINDOW 3 32 56 VTop 2
SYMATTR InstName R20
SYMATTR Value .001
SYMBOL cap 80 0 R0
SYMATTR InstName C3
SYMATTR Value 1µ
SYMBOL cap 80 272 R0
SYMATTR InstName C4
SYMATTR Value 1µ
SYMBOL res 288 224 R0
SYMATTR InstName R21
SYMATTR Value 10Meg
SYMBOL res 256 32 R0
SYMATTR InstName R22
SYMATTR Value 10Meg
SYMBOL current 208 128 R180
WINDOW 123 0 0 Left 0
WINDOW 39 0 0 Left 0
SYMATTR InstName I1
SYMATTR Value SINE(2m 0.5m 10k)
TEXT -8 536 Left 2 !.tran 0 0.001 0 0.0001
