Version 4
SHEET 1 2412 1236
WIRE 848 192 752 192
WIRE 864 192 848 192
WIRE 976 192 944 192
WIRE 1120 192 976 192
WIRE 1184 192 1120 192
WIRE 1344 192 1184 192
WIRE 1920 224 1904 224
WIRE 976 240 976 192
WIRE 2192 240 2176 240
WIRE 1120 272 1120 192
WIRE 1184 272 1184 192
WIRE 848 304 848 192
WIRE 1072 320 976 320
WIRE 1104 320 1072 320
WIRE 1344 320 1344 192
WIRE 1904 320 1904 224
WIRE 1984 320 1984 224
WIRE 1184 336 1184 320
WIRE 2176 336 2176 240
WIRE 2256 336 2256 240
WIRE 752 400 752 192
WIRE 1952 416 1952 400
WIRE 848 432 848 368
WIRE 976 432 976 400
WIRE 976 432 848 432
WIRE 1120 432 1120 368
WIRE 1120 432 976 432
WIRE 1184 432 1184 336
WIRE 1184 432 1120 432
WIRE 1216 432 1184 432
WIRE 1344 432 1344 400
WIRE 1504 432 1344 432
WIRE 1904 432 1904 320
WIRE 1904 432 1584 432
WIRE 1920 432 1904 432
WIRE 976 448 976 432
WIRE 1216 448 1216 432
WIRE 1984 448 1984 320
WIRE 2048 448 1984 448
WIRE 2176 448 2176 336
WIRE 2176 448 2128 448
WIRE 2192 448 2176 448
WIRE 1872 464 1824 464
WIRE 1920 464 1872 464
WIRE 2256 464 2256 336
WIRE 2352 464 2256 464
WIRE 1120 480 1120 432
WIRE 2160 480 2112 480
WIRE 2192 480 2160 480
WIRE 1824 496 1824 464
WIRE 1344 512 1344 432
WIRE 1872 512 1872 464
WIRE 1952 512 1952 480
WIRE 1072 528 976 528
WIRE 1104 528 1072 528
WIRE 2112 528 2112 480
WIRE 2160 528 2160 480
WIRE 1184 544 1184 432
WIRE 848 560 848 432
WIRE 752 736 752 480
WIRE 848 736 848 624
WIRE 848 736 752 736
WIRE 864 736 848 736
WIRE 976 736 976 608
WIRE 976 736 944 736
WIRE 1120 736 1120 576
WIRE 1120 736 976 736
WIRE 1184 736 1184 608
WIRE 1184 736 1120 736
WIRE 1344 736 1344 592
WIRE 1344 736 1184 736
FLAG 752 192 +V
FLAG 752 736 -V
FLAG 1120 736 V2-
FLAG 1216 448 0
FLAG 1824 496 0
FLAG 2112 528 0
FLAG 2352 464 A-B
FLAG 2224 432 +V
FLAG 1952 400 +V
FLAG 1952 512 -V
FLAG 1872 576 -V
FLAG 2160 592 -V
FLAG 2224 496 -V
SYMBOL res 848 208 R270
WINDOW 0 32 56 VTop 2
WINDOW 3 0 56 VBottom 2
SYMATTR InstName R1
SYMATTR Value 270
SYMBOL res 848 752 R270
WINDOW 0 32 56 VTop 2
WINDOW 3 0 56 VBottom 2
SYMATTR InstName R2
SYMATTR Value 270
SYMBOL voltage 752 384 R0
WINDOW 123 0 0 Left 0
WINDOW 39 0 0 Left 0
SYMATTR InstName V1
SYMATTR Value 24
SYMBOL cap 864 624 R180
WINDOW 0 24 56 Left 2
WINDOW 3 24 8 Left 2
SYMATTR InstName C1
SYMATTR Value 0.1µ
SYMBOL cap 864 368 R180
WINDOW 0 24 56 Left 2
WINDOW 3 24 8 Left 2
SYMATTR InstName C2
SYMATTR Value 0.1µ
SYMBOL res 960 224 R0
SYMATTR InstName R3
SYMATTR Value 470
SYMBOL res 960 304 R0
SYMATTR InstName R4
SYMATTR Value 470
SYMBOL res 960 432 R0
SYMATTR InstName R5
SYMATTR Value 470
SYMBOL res 960 512 R0
SYMATTR InstName R6
SYMATTR Value 470
SYMBOL MyTL431 1120 320 R0
WINDOW 0 99 -16 Left 2
SYMATTR InstName U1
SYMBOL MyTL431 1120 528 R0
SYMATTR InstName U2
SYMBOL current 1344 320 R0
WINDOW 39 0 0 Left 0
WINDOW 3 24 136 Left 2
WINDOW 123 24 108 Left 2
SYMATTR Value SINE(1m 0.1m 10000)
SYMATTR Value2 AC 3.25m
SYMATTR InstName I1
SYMBOL current 1344 512 R0
WINDOW 123 0 0 Left 0
WINDOW 39 0 0 Left 0
SYMATTR InstName I2
SYMATTR Value SINE(1m 0.15m 10000)
SYMBOL res 2000 304 R90
WINDOW 0 0 56 VBottom 2
WINDOW 3 32 56 VTop 2
SYMATTR InstName R17
SYMATTR Value 1k
SYMBOL cap 1984 208 R90
WINDOW 0 0 32 VBottom 2
WINDOW 3 32 32 VTop 2
SYMATTR InstName C5
SYMATTR Value 150p
SYMBOL OpAmps\\OP177A 1952 384 R0
SYMATTR InstName U5
SYMBOL OpAmps\\OP177A 2224 400 R0
SYMATTR InstName U6
SYMBOL cap 1856 512 R0
SYMATTR InstName C6
SYMATTR Value 1n
SYMBOL cap 2144 528 R0
SYMATTR InstName C7
SYMATTR Value 1n
SYMBOL res 2272 320 R90
WINDOW 0 0 56 VBottom 2
WINDOW 3 32 56 VTop 2
SYMATTR InstName R18
SYMATTR Value 1k
SYMBOL cap 2256 224 R90
WINDOW 0 0 32 VBottom 2
WINDOW 3 32 32 VTop 2
SYMATTR InstName C8
SYMATTR Value 150p
SYMBOL res 2144 432 R90
WINDOW 0 0 56 VBottom 2
WINDOW 3 32 56 VTop 2
SYMATTR InstName R19
SYMATTR Value 1k
SYMBOL res 1600 416 R90
WINDOW 0 0 56 VBottom 2
WINDOW 3 32 56 VTop 2
SYMATTR InstName R20
SYMATTR Value .001
SYMBOL cap 1168 272 R0
SYMATTR InstName C9
SYMATTR Value 1µ
SYMBOL cap 1168 544 R0
SYMATTR InstName C10
SYMATTR Value 1µ
TEXT 1128 808 Left 2 !.tran 0 0.001 0.00001 0.000001
