Version 4
SHEET 1 2092 1236
WIRE -624 -144 -768 -144
WIRE -400 -144 -560 -144
WIRE -768 -48 -768 -144
WIRE -704 -48 -768 -48
WIRE -560 -48 -624 -48
WIRE -400 -48 -400 -144
WIRE -400 -48 -480 -48
WIRE -128 -48 -400 -48
WIRE 1328 64 1264 64
WIRE 1424 64 1392 64
WIRE -656 80 -656 48
WIRE -624 80 -656 80
WIRE -528 80 -560 80
WIRE -368 80 -368 48
WIRE -240 80 -368 80
WIRE -880 96 -992 96
WIRE -768 96 -768 -48
WIRE -768 96 -800 96
WIRE -720 96 -768 96
WIRE -368 112 -368 80
WIRE -992 128 -992 96
WIRE -656 128 -656 80
WIRE -240 128 -240 80
WIRE -720 144 -720 96
WIRE -688 144 -720 144
WIRE 496 144 176 144
WIRE 768 144 576 144
WIRE -544 160 -624 160
WIRE -432 160 -464 160
WIRE 1264 160 1264 64
WIRE 1312 160 1264 160
WIRE 1424 160 1424 64
WIRE 1424 160 1392 160
WIRE -688 176 -720 176
WIRE 1600 192 1584 192
WIRE 1872 208 1856 208
WIRE -368 224 -368 208
WIRE -240 224 -240 192
WIRE -240 224 -368 224
WIRE 768 224 768 144
WIRE 912 224 912 160
WIRE 1024 224 912 224
WIRE 1136 224 1024 224
WIRE 1264 224 1264 160
WIRE 1264 224 1216 224
WIRE -992 240 -992 208
WIRE -880 240 -992 240
WIRE -768 240 -800 240
WIRE -720 240 -720 176
WIRE -720 240 -768 240
WIRE -368 240 -368 224
WIRE -128 240 -128 -48
WIRE -128 240 -368 240
WIRE 1264 240 1264 224
WIRE 1280 240 1264 240
WIRE -656 256 -656 192
WIRE -624 256 -656 256
WIRE -528 256 -560 256
WIRE -368 256 -368 240
WIRE 1424 256 1424 160
WIRE 1424 256 1344 256
WIRE 1472 256 1424 256
WIRE 1280 272 1264 272
WIRE -992 288 -992 240
WIRE -128 288 -128 240
WIRE 1584 288 1584 192
WIRE 1664 288 1664 192
WIRE -656 304 -656 256
WIRE 176 304 176 144
WIRE 320 304 176 304
WIRE 448 304 400 304
WIRE 528 304 448 304
WIRE 1136 304 1024 304
WIRE 1264 304 1264 272
WIRE 1264 304 1216 304
WIRE 1856 304 1856 208
WIRE 1936 304 1936 208
WIRE 1264 336 1264 304
WIRE 1376 336 1344 336
WIRE -368 352 -368 336
WIRE 1584 368 1584 288
WIRE 1584 368 1232 368
WIRE 1600 368 1584 368
WIRE 1664 384 1664 288
WIRE 1728 384 1664 384
WIRE 1856 384 1856 304
WIRE 1856 384 1808 384
WIRE 1872 384 1856 384
WIRE 1024 400 1024 304
WIRE 1232 400 1232 368
WIRE 1232 400 1024 400
WIRE 1344 400 1280 400
WIRE 1440 400 1408 400
WIRE 1568 400 1520 400
WIRE 1600 400 1568 400
WIRE 1936 400 1936 304
WIRE 2032 400 1936 400
WIRE 1840 416 1792 416
WIRE 1872 416 1840 416
WIRE -864 432 -896 432
WIRE -768 432 -768 240
WIRE -768 432 -800 432
WIRE -624 432 -768 432
WIRE -128 432 -128 368
WIRE -128 432 -544 432
WIRE -32 432 -128 432
WIRE 176 432 176 304
WIRE 176 432 48 432
WIRE 256 432 176 432
WIRE 448 432 448 304
WIRE 448 432 320 432
WIRE 1520 432 1520 400
WIRE 1568 448 1568 400
WIRE 1792 464 1792 416
WIRE 1840 464 1840 416
WIRE 1280 496 1280 400
WIRE 1328 496 1280 496
WIRE 1440 496 1440 400
WIRE 1440 496 1408 496
WIRE 1024 544 1024 400
WIRE 1152 544 1024 544
WIRE 1152 560 1152 544
WIRE 1280 560 1280 496
WIRE 1280 560 1232 560
WIRE -624 576 -768 576
WIRE -400 576 -560 576
WIRE 1280 576 1280 560
WIRE 1296 576 1280 576
WIRE 1440 592 1440 496
WIRE 1440 592 1360 592
WIRE 1472 592 1440 592
WIRE 1296 608 1280 608
WIRE -1296 624 -1392 624
WIRE -1152 624 -1152 592
WIRE -1296 640 -1296 624
WIRE 592 640 176 640
WIRE 1024 640 1024 624
WIRE 1024 640 912 640
WIRE 1152 640 1024 640
WIRE 1280 640 1280 608
WIRE 1280 640 1232 640
WIRE -768 672 -768 576
WIRE -704 672 -768 672
WIRE -560 672 -624 672
WIRE -400 672 -400 576
WIRE -400 672 -480 672
WIRE -128 672 -400 672
WIRE 1280 672 1280 640
WIRE 912 688 912 640
WIRE -1152 752 -1152 704
WIRE 1280 784 1280 752
WIRE -656 800 -656 768
WIRE -624 800 -656 800
WIRE -528 800 -560 800
WIRE -368 800 -368 768
WIRE -240 800 -368 800
WIRE -880 816 -992 816
WIRE -768 816 -768 672
WIRE -768 816 -800 816
WIRE -720 816 -768 816
WIRE -368 832 -368 800
WIRE -992 848 -992 816
WIRE -656 848 -656 800
WIRE -240 848 -240 800
WIRE -720 864 -720 816
WIRE -688 864 -720 864
WIRE -544 880 -624 880
WIRE -432 880 -464 880
WIRE -688 896 -720 896
WIRE -368 944 -368 928
WIRE -240 944 -240 912
WIRE -240 944 -368 944
WIRE -992 960 -992 928
WIRE -880 960 -992 960
WIRE -768 960 -800 960
WIRE -720 960 -720 896
WIRE -720 960 -768 960
WIRE -368 960 -368 944
WIRE -128 960 -128 672
WIRE -128 960 -368 960
WIRE -656 976 -656 912
WIRE -624 976 -656 976
WIRE -528 976 -560 976
WIRE -368 976 -368 960
WIRE -128 1008 -128 960
WIRE -656 1024 -656 976
WIRE 176 1024 176 640
WIRE 320 1024 176 1024
WIRE 448 1024 400 1024
WIRE 528 1024 448 1024
WIRE -992 1040 -992 960
WIRE -368 1072 -368 1056
WIRE -864 1152 -896 1152
WIRE -768 1152 -768 960
WIRE -768 1152 -800 1152
WIRE -624 1152 -768 1152
WIRE -128 1152 -128 1088
WIRE -128 1152 -544 1152
WIRE -32 1152 -128 1152
WIRE 176 1152 176 1024
WIRE 176 1152 48 1152
WIRE 256 1152 176 1152
WIRE 448 1152 448 1024
WIRE 448 1152 320 1152
FLAG -992 1040 0
FLAG -528 800 0
FLAG -656 768 V+
FLAG -1152 592 V+
FLAG -1296 720 V-
FLAG -528 976 0
FLAG -656 1024 V-
FLAG -896 1152 0
FLAG -368 768 V-
FLAG -368 1072 V+
FLAG 528 1024 0
FLAG -1152 752 0
FLAG -1392 624 0
FLAG 1376 336 0
FLAG 1280 784 0
FLAG 1328 560 V+
FLAG 1312 224 V+
FLAG 1328 624 V-
FLAG 1312 288 V-
FLAG 1472 256 Out+
FLAG 1472 592 Out-
FLAG 1520 432 0
FLAG 1792 464 0
FLAG 2032 400 A-B
FLAG 1904 368 V+
FLAG 1632 352 V+
FLAG 1632 416 V-
FLAG 1568 512 V-
FLAG 1840 528 V-
FLAG 1904 432 V-
FLAG -992 288 0
FLAG -528 80 0
FLAG -656 48 V+
FLAG -528 256 0
FLAG -656 304 V-
FLAG -896 432 0
FLAG -368 48 V-
FLAG -368 352 V+
FLAG 528 304 0
FLAG 912 768 V-
FLAG 912 80 V+
SYMBOL res -784 800 R90
WINDOW 0 0 56 VBottom 2
WINDOW 3 32 56 VTop 2
SYMATTR InstName R1
SYMATTR Value 15k
SYMBOL res -784 944 R90
WINDOW 0 0 56 VBottom 2
WINDOW 3 32 56 VTop 2
SYMATTR InstName R2
SYMATTR Value 15k
SYMBOL voltage -992 832 R0
WINDOW 123 0 0 Left 0
WINDOW 39 0 0 Left 0
SYMATTR InstName V2
SYMATTR Value 1
SYMBOL OpAmps\\OP177A -656 816 R0
SYMATTR InstName U1
SYMBOL res -608 656 R90
WINDOW 0 0 56 VBottom 2
WINDOW 3 32 56 VTop 2
SYMATTR InstName R3
SYMATTR Value 1
SYMBOL res -464 656 R90
WINDOW 0 0 56 VBottom 2
WINDOW 3 32 56 VTop 2
SYMATTR InstName R9
SYMATTR Value 1k
SYMBOL cap -560 560 R90
WINDOW 0 0 32 VBottom 2
WINDOW 3 32 32 VTop 2
SYMATTR InstName C1
SYMATTR Value 1n
SYMBOL cap -560 784 R90
WINDOW 0 0 32 VBottom 2
WINDOW 3 32 32 VTop 2
SYMATTR InstName C2
SYMATTR Value 0.1µ
SYMBOL voltage -1152 608 R0
WINDOW 123 0 0 Left 0
WINDOW 39 0 0 Left 0
WINDOW 3 45 74 Left 2
SYMATTR Value 12V
SYMATTR InstName V3
SYMBOL cap -560 960 R90
WINDOW 0 0 32 VBottom 2
WINDOW 3 32 32 VTop 2
SYMATTR InstName C3
SYMATTR Value 0.1µ
SYMBOL res -448 864 R90
WINDOW 0 0 56 VBottom 2
WINDOW 3 32 56 VTop 2
SYMATTR InstName R10
SYMATTR Value 50
SYMBOL cap -800 1136 R90
WINDOW 0 0 32 VBottom 2
WINDOW 3 32 32 VTop 2
SYMATTR InstName C4
SYMATTR Value 1n
SYMBOL pnp -432 832 R0
SYMATTR InstName Q1
SYMATTR Value BD136
SYMBOL res -528 1136 R90
WINDOW 0 0 56 VBottom 2
WINDOW 3 32 56 VTop 2
SYMATTR InstName R11
SYMATTR Value 1k
SYMBOL res -384 960 R0
SYMATTR InstName R12
SYMATTR Value 10K
SYMBOL diode -256 848 R0
SYMATTR InstName D1
SYMATTR Value 1N4148
SYMBOL res -144 992 R0
SYMATTR InstName R13
SYMATTR Value 1
SYMBOL ind 64 1136 R90
WINDOW 0 5 56 VBottom 2
WINDOW 3 32 56 VTop 2
SYMATTR InstName L1
SYMATTR Value 1µ
SYMBOL res 416 1008 R90
WINDOW 0 0 56 VBottom 2
WINDOW 3 32 56 VTop 2
SYMATTR InstName R14
SYMATTR Value 1
SYMBOL diode 256 1168 R270
WINDOW 0 32 32 VTop 2
WINDOW 3 0 32 VBottom 2
SYMATTR InstName D2
SYMATTR Value 1N4148
SYMBOL voltage -1296 624 R0
WINDOW 123 0 0 Left 0
WINDOW 39 0 0 Left 0
SYMATTR InstName V4
SYMATTR Value 12V
SYMBOL res 1008 208 R0
SYMATTR InstName R26
SYMATTR Value 50
SYMBOL res 1008 528 R0
SYMATTR InstName R27
SYMATTR Value 50
SYMBOL res 1232 208 R90
WINDOW 0 0 56 VBottom 2
WINDOW 3 32 56 VTop 2
SYMATTR InstName R28
SYMATTR Value 1k
SYMBOL OpAmps\\OP177A 1312 192 R0
SYMATTR InstName U6
SYMBOL res 1408 144 R90
WINDOW 0 0 56 VBottom 2
WINDOW 3 32 56 VTop 2
SYMATTR InstName R30
SYMATTR Value 10k
SYMBOL cap 1392 48 R90
WINDOW 0 0 32 VBottom 2
WINDOW 3 32 32 VTop 2
SYMATTR InstName C11
SYMATTR Value 150p
SYMBOL res 1360 320 R90
WINDOW 0 0 56 VBottom 2
WINDOW 3 32 56 VTop 2
SYMATTR InstName R31
SYMATTR Value 10k
SYMBOL OpAmps\\OP177A 1328 528 R0
SYMATTR InstName U7
SYMBOL res 1424 480 R90
WINDOW 0 0 56 VBottom 2
WINDOW 3 32 56 VTop 2
SYMATTR InstName R32
SYMATTR Value 10k
SYMBOL cap 1408 384 R90
WINDOW 0 0 32 VBottom 2
WINDOW 3 32 32 VTop 2
SYMATTR InstName C12
SYMATTR Value 150p
SYMBOL res 1296 768 R180
WINDOW 0 36 76 Left 2
WINDOW 3 36 40 Left 2
SYMATTR InstName R33
SYMATTR Value 10k
SYMBOL res 1248 544 R90
WINDOW 0 0 56 VBottom 2
WINDOW 3 32 56 VTop 2
SYMATTR InstName R34
SYMATTR Value 1k
SYMBOL res 1248 624 R90
WINDOW 0 0 56 VBottom 2
WINDOW 3 32 56 VTop 2
SYMATTR InstName R35
SYMATTR Value 1k
SYMBOL res 1680 272 R90
WINDOW 0 0 56 VBottom 2
WINDOW 3 32 56 VTop 2
SYMATTR InstName R36
SYMATTR Value 1k
SYMBOL cap 1664 176 R90
WINDOW 0 0 32 VBottom 2
WINDOW 3 32 32 VTop 2
SYMATTR InstName C13
SYMATTR Value 150p
SYMBOL OpAmps\\OP177A 1632 320 R0
SYMATTR InstName U8
SYMBOL OpAmps\\OP177A 1904 336 R0
SYMATTR InstName U9
SYMBOL cap 1552 448 R0
SYMATTR InstName C14
SYMATTR Value 1n
SYMBOL cap 1824 464 R0
SYMATTR InstName C15
SYMATTR Value 1n
SYMBOL res 1952 288 R90
WINDOW 0 0 56 VBottom 2
WINDOW 3 32 56 VTop 2
SYMATTR InstName R37
SYMATTR Value 1k
SYMBOL cap 1936 192 R90
WINDOW 0 0 32 VBottom 2
WINDOW 3 32 32 VTop 2
SYMATTR InstName C16
SYMATTR Value 150p
SYMBOL res 1824 368 R90
WINDOW 0 0 56 VBottom 2
WINDOW 3 32 56 VTop 2
SYMATTR InstName R38
SYMATTR Value 1k
SYMBOL res 896 64 R0
SYMATTR InstName R4
SYMATTR Value 270
SYMBOL res 896 672 R0
SYMATTR InstName R5
SYMATTR Value 270
SYMBOL res -784 80 R90
WINDOW 0 0 56 VBottom 2
WINDOW 3 32 56 VTop 2
SYMATTR InstName R6
SYMATTR Value 15k
SYMBOL res -784 224 R90
WINDOW 0 0 56 VBottom 2
WINDOW 3 32 56 VTop 2
SYMATTR InstName R7
SYMATTR Value 15k
SYMBOL voltage -992 112 R0
WINDOW 123 0 0 Left 0
WINDOW 39 0 0 Left 0
SYMATTR InstName V1
SYMATTR Value 1
SYMBOL OpAmps\\OP177A -656 96 R0
SYMATTR InstName U2
SYMBOL res -608 -64 R90
WINDOW 0 0 56 VBottom 2
WINDOW 3 32 56 VTop 2
SYMATTR InstName R8
SYMATTR Value 1
SYMBOL res -464 -64 R90
WINDOW 0 0 56 VBottom 2
WINDOW 3 32 56 VTop 2
SYMATTR InstName R15
SYMATTR Value 1k
SYMBOL cap -560 -160 R90
WINDOW 0 0 32 VBottom 2
WINDOW 3 32 32 VTop 2
SYMATTR InstName C5
SYMATTR Value 1n
SYMBOL cap -560 64 R90
WINDOW 0 0 32 VBottom 2
WINDOW 3 32 32 VTop 2
SYMATTR InstName C6
SYMATTR Value 0.1µ
SYMBOL cap -560 240 R90
WINDOW 0 0 32 VBottom 2
WINDOW 3 32 32 VTop 2
SYMATTR InstName C7
SYMATTR Value 0.1µ
SYMBOL res -448 144 R90
WINDOW 0 0 56 VBottom 2
WINDOW 3 32 56 VTop 2
SYMATTR InstName R16
SYMATTR Value 50
SYMBOL cap -800 416 R90
WINDOW 0 0 32 VBottom 2
WINDOW 3 32 32 VTop 2
SYMATTR InstName C8
SYMATTR Value 1n
SYMBOL pnp -432 112 R0
SYMATTR InstName Q2
SYMATTR Value BD136
SYMBOL res -528 416 R90
WINDOW 0 0 56 VBottom 2
WINDOW 3 32 56 VTop 2
SYMATTR InstName R17
SYMATTR Value 1k
SYMBOL res -384 240 R0
SYMATTR InstName R18
SYMATTR Value 10K
SYMBOL diode -256 128 R0
SYMATTR InstName D3
SYMATTR Value 1N4148
SYMBOL res -144 272 R0
SYMATTR InstName R19
SYMATTR Value 1
SYMBOL ind 64 416 R90
WINDOW 0 5 56 VBottom 2
WINDOW 3 32 56 VTop 2
SYMATTR InstName L2
SYMATTR Value 1µ
SYMBOL res 416 288 R90
WINDOW 0 0 56 VBottom 2
WINDOW 3 32 56 VTop 2
SYMATTR InstName R20
SYMATTR Value 1
SYMBOL diode 256 448 R270
WINDOW 0 32 32 VTop 2
WINDOW 3 0 32 VBottom 2
SYMATTR InstName D4
SYMATTR Value 1N4148
SYMBOL res 592 128 R90
WINDOW 0 0 56 VBottom 2
WINDOW 3 32 56 VTop 2
SYMATTR InstName R21
SYMATTR Value 1
SYMBOL res 688 624 R90
WINDOW 0 0 56 VBottom 2
WINDOW 3 32 56 VTop 2
SYMATTR InstName R22
SYMATTR Value 1
SYMBOL res 1232 288 R90
WINDOW 0 0 56 VBottom 2
WINDOW 3 32 56 VTop 2
SYMATTR InstName R23
SYMATTR Value 1k
TEXT -1368 976 Left 2 !.dc V2 0 5 0.05
